SOLVER= RANS
MATH_PROBLEM= DIRECT
RESTART_SOL= NO
MACH_NUMBER= 0.82
AOA= 0.0
FREESTREAM_TEMPERATURE= 216.65
REYNOLDS_NUMBER= 1.30E7
MARKER_HEATFLUX= ( AIRFOIL, 0.0 )
MARKER_FAR= ( FARFIELD )
MARKER_PLOTTING= ( AIRFOIL )
MARKER_MONITORING= ( AIRFOIL )
GEO_MARKER= ( AIRFOIL )
GEO_DESCRIPTION= AIRFOIL
GEO_MODE= FUNCTION
REF_ORIGIN_MOMENT_X= 0.25
REF_ORIGIN_MOMENT_Y= 0.00
REF_ORIGIN_MOMENT_Z= 0.00
REYNOLDS_LENGTH= 1
REF_LENGTH= 1
REF_AREA= 0
ITER= 5000
CONV_CAUCHY_EPS= 1E-6
CFL_NUMBER= 20.0
NUM_METHOD_GRAD= WEIGHTED_LEAST_SQUARES
OBJECTIVE_FUNCTION= DRAG
CONV_FIELD= DRAG
CONV_STARTITER= 10
CONV_CAUCHY_ELEMS= 100
CONV_RESIDUAL_MINVAL= -12
CONV_NUM_METHOD_FLOW= JST
ENTROPY_FIX_COEFF= 0.001
TIME_DISCRE_FLOW= EULER_IMPLICIT
KIND_TURB_MODEL= SST
CFL_REDUCTION_TURB= 1.0
CONV_NUM_METHOD_TURB= SCALAR_UPWIND
TIME_DISCRE_TURB= EULER_IMPLICIT
MGLEVEL= 4
MGCYCLE= V_CYCLE
MG_PRE_SMOOTH= ( 1, 1, 1, 1 )
MG_POST_SMOOTH= ( 0, 0, 0, 0 )
MG_CORRECTION_SMOOTH= ( 0, 0, 0, 0 )
MG_DAMP_RESTRICTION= 0.25
MG_DAMP_PROLONGATION= 0.25
MG_ADJFLOW= NO
MESH_FILENAME= 3-cessna50.su2
SOLUTION_FILENAME= restart-cfd.dat
OUTPUT_WRT_FREQ= 1000, 500, 500, 1000, 1000
OUTPUT_FILES= (RESTART, PARAVIEW, SURFACE_PARAVIEW, CSV, SURFACE_CSV)
WRT_PERFORMANCE= YES
WRT_FORCES_BREAKDOWN= YES
MESH_FORMAT= SU2
TABULAR_FORMAT= CSV
SOLUTION_ADJ_FILENAME= restart-adj.dat
CONV_FILENAME= history
RESTART_FILENAME= restart-cfd-out.dat
RESTART_ADJ_FILENAME= restart-adj-out.dat
SURFACE_FILENAME= solution-2D
SURFACE_ADJ_FILENAME= adjoint-solution-2D
VOLUME_FILENAME= solution-3D
VOLUME_ADJ_FILENAME= adjoint-solution-3D
GRAD_OBJFUNC_FILENAME= objective-function.dat
BREAKDOWN_FILENAME= forces-breakdown.dat
HISTORY_OUTPUT= WALL_TIME, INNER_ITER, RMS_DENSITY, CAUCHY_DRAG, LIFT, DRAG, FORCE_X, FORCE_Y, MOMENT_Z, BUFFET
SCREEN_OUTPUT= ( INNER_ITER, WALL_TIME RMS_DENSITY, CAUCHY_DRAG, LIFT, DRAG, MOMENT_Z)
VOLUME_OUTPUT= (COORDINATES, SOLUTION, EDDY_VISCOSITY, HEAT_FLUX, LAMINAR_VISCOSITY, MACH, PRESSURE, PRESSURE_COEFF, TEMPERATURE, VELOCITY-X, VELOCITY-Y, RES_DENSITY, RES_MOMENTUM-X, RES_MOMENTUM-Y, RES_ENERGY, RES_NU_TILDE, VORTICITY, MESH_QUALITY, MULTIGRID, MPI)
DV_VALUE_NEW= 0
DV_VALUE_OLD= 0
OPT_ITERATIONS= 100
OPT_ACCURACY= 1e-10
OPT_RELAX_FACTOR= 1.0
OPT_GRADIENT_FACTOR= 1.0
OPT_BOUND_UPPER= 10000000000.0
OPT_BOUND_LOWER= -10000000000.0
OPT_COMBINE_OBJECTIVE= NO
OPT_CONSTRAINT= NONE
VALUE_OBJFUNC_FILENAME= of_eval.dat
SIDESLIP_ANGLE= 0.0
TARGET_CL= 0.0
FREESTREAM_PRESSURE= 101325.0
MARKER_OUTLET= (NONE)
MULTIPOINT_WEIGHT= (1.0)
MULTIPOINT_MACH_NUMBER= (0.82)
MULTIPOINT_AOA= (0.0)
MULTIPOINT_SIDESLIP_ANGLE= (0.0)
MULTIPOINT_REYNOLDS_NUMBER= (1.30E7)
MULTIPOINT_TARGET_CL= (0.0)
MULTIPOINT_FREESTREAM_PRESSURE= (101325.0)
MULTIPOINT_FREESTREAM_TEMPERATURE= (216.65)
MULTIPOINT_OUTLET_VALUE= (0.0)
MULTIPOINT_MESH_FILENAME= (3-cessna50.su2)
DV_KIND= FFD_SETTING
DV_PARAM= ( 1, 0.5) 
DEFINITION_DV= ( 30 , 1.0 | WING  | 0.0 , 0.05  )
NUMBER_PART= 14
DV_VALUE= 0
